test/test_perturbation_outputs/pert_min_cost/pglib_opf_case24_ieee_rts.m
%% MATPOWER Case Format : Version 2
function mpc = pglib_opf_case24_ieee_rts
mpc.version = '2';

%%-----  Power Flow Data  -----%%
%% system MVA base
mpc.baseMVA = 100.0;
%% bus data
%    bus_i    type    Pd    Qd    Gs    Bs    area    Vm    Va    baseKV    zone    Vmax    Vmin
mpc.bus = [
	1	2	108.0	22.0	0.0	0.0	1	1.0	0.0	138.0	1	1.05	0.95				
	2	2	97.0	20.0	0.0	0.0	1	1.0	0.0	138.0	1	1.05	0.95				
	3	1	180.0	37.0	0.0	0.0	1	1.0	0.0	138.0	1	1.05	0.95				
	4	1	74.0	15.0	0.0	0.0	1	1.0	0.0	138.0	1	1.05	0.95				
	5	1	71.0	14.000000000000002	0.0	0.0	1	1.0	0.0	138.0	1	1.05	0.95				
	6	1	136.0	28.000000000000004	0.0	-100.0	2	1.0	0.0	138.0	1	1.05	0.95				
	7	2	125.0	25.0	0.0	0.0	2	1.0	0.0	138.0	1	1.05	0.95				
	8	1	171.0	35.0	0.0	0.0	2	1.0	0.0	138.0	1	1.05	0.95				
	9	1	175.0	36.0	0.0	0.0	1	1.0	0.0	138.0	1	1.05	0.95				
	10	1	195.0	40.0	0.0	0.0	2	1.0	0.0	138.0	1	1.05	0.95				
	11	1	0.0	0.0	0.0	0.0	3	1.0	0.0	230.0	1	1.05	0.95				
	12	1	0.0	0.0	0.0	0.0	3	1.0	0.0	230.0	1	1.05	0.95				
	13	3	265.0	54.0	0.0	0.0	3	1.0	0.0	230.0	1	1.05	0.95				
	14	2	194.0	39.0	0.0	0.0	3	1.0	0.0	230.0	1	1.05	0.95				
	15	2	317.0	64.0	0.0	0.0	4	1.0	0.0	230.0	1	1.05	0.95				
	16	2	100.0	20.0	0.0	0.0	4	1.0	0.0	230.0	1	1.05	0.95				
	17	1	0.0	0.0	0.0	0.0	4	1.0	0.0	230.0	1	1.05	0.95				
	18	2	333.0	68.0	0.0	0.0	4	1.0	0.0	230.0	1	1.05	0.95				
	19	1	181.0	37.0	0.0	0.0	3	1.0	0.0	230.0	1	1.05	0.95				
	20	1	128.0	26.0	0.0	0.0	3	1.0	0.0	230.0	1	1.05	0.95				
	21	2	0.0	0.0	0.0	0.0	4	1.0	0.0	230.0	1	1.05	0.95				
	22	2	0.0	0.0	0.0	0.0	4	1.0	0.0	230.0	1	1.05	0.95				
	23	2	0.0	0.0	0.0	0.0	3	1.0	0.0	230.0	1	1.05	0.95				
	24	1	0.0	0.0	0.0	0.0	4	1.0	0.0	230.0	1	1.05	0.95				
];

%% generator data
%    bus    Pg    Qg    Qmax    Qmin    Vg    mBase    status    Pmax    Pmin    Pc1    Pc2    Qc1min    Qc1max    Qc2min    Qc2max    ramp_agc    ramp_10    ramp_30    ramp_q    apf
mpc.gen = [
	1	18.0	5.0	10.0	0.0	1.0	100.0	1	20.0	16.0															
	1	18.0	5.0	10.0	0.0	1.0	100.0	1	20.0	16.0															
	1	45.6	2.5	30.0	-25.0	1.0	100.0	1	76.0	15.2															
	1	45.6	2.5	30.0	-25.0	1.0	100.0	1	76.0	15.2															
	2	18.0	5.0	10.0	0.0	1.0	100.0	1	20.0	16.0															
	2	18.0	5.0	10.0	0.0	1.0	100.0	1	20.0	16.0															
	2	45.6	2.5	30.0	-25.0	1.0	100.0	1	76.0	15.2															
	2	45.6	2.5	30.0	-25.0	1.0	100.0	1	76.0	15.2															
	7	62.5	30.0	60.0	0.0	1.0	100.0	1	100.0	25.0															
	7	62.5	30.0	60.0	0.0	1.0	100.0	1	100.0	25.0															
	7	62.5	30.0	60.0	0.0	1.0	100.0	1	100.0	25.0															
	13	133.0	40.0	80.0	0.0	1.0	100.0	1	197.0	69.0															
	13	133.0	40.0	80.0	0.0	1.0	100.0	1	197.0	69.0															
	13	133.0	40.0	80.0	0.0	1.0	100.0	1	197.0	69.0															
	14	0.0	75.0	200.0	-50.0	1.0	100.0	1	0.0	0.0															
	15	7.200000000000001	3.0	6.0	0.0	1.0	100.0	1	12.0	2.4															
	15	7.200000000000001	3.0	6.0	0.0	1.0	100.0	1	12.0	2.4															
	15	7.200000000000001	3.0	6.0	0.0	1.0	100.0	1	12.0	2.4															
	15	7.200000000000001	3.0	6.0	0.0	1.0	100.0	1	12.0	2.4															
	15	7.200000000000001	3.0	6.0	0.0	1.0	100.0	1	12.0	2.4															
	15	104.65	15.0	80.0	-50.0	1.0	100.0	1	155.0	54.29999999999999															
	16	104.65	15.0	80.0	-50.0	1.0	100.0	1	155.0	54.29999999999999															
	18	250.0	75.0	200.0	-50.0	1.0	100.0	1	400.0	100.0															
	21	250.0	75.0	200.0	-50.0	1.0	100.0	1	400.0	100.0															
	22	30.0	3.0	16.0	-10.0	1.0	100.0	1	50.0	10.0															
	22	30.0	3.0	16.0	-10.0	1.0	100.0	1	50.0	10.0															
	22	30.0	3.0	16.0	-10.0	1.0	100.0	1	50.0	10.0															
	22	30.0	3.0	16.0	-10.0	1.0	100.0	1	50.0	10.0															
	22	30.0	3.0	16.0	-10.0	1.0	100.0	1	50.0	10.0															
	22	30.0	3.0	16.0	-10.0	1.0	100.0	1	50.0	10.0															
	23	104.65	15.0	80.0	-50.0	1.0	100.0	1	155.0	54.29999999999999															
	23	104.65	15.0	80.0	-50.0	1.0	100.0	1	155.0	54.29999999999999															
	23	245.00000000000003	62.5	150.0	-25.0	1.0	100.0	1	350.0	140.0															
];

%% branch data
%    f_bus    t_bus    r    x    b    rateA    rateB    rateC    ratio    angle    status    angmin    angmax
mpc.branch = [
	1	2	0.0026	0.0139	0.4611	175.0	193.0	200.0	0	0	1	-29.999999999999996	29.999999999999996								
	1	3	0.0546	0.2112	0.0572	175.0	208.0	220.00000000000003	0	0	1	-29.999999999999996	29.999999999999996								
	1	5	0.0218	0.0845	0.0229	175.0	208.0	220.00000000000003	0	0	1	-29.999999999999996	29.999999999999996								
	2	4	0.0328	0.1267	0.0343	175.0	208.0	220.00000000000003	0	0	1	-29.999999999999996	29.999999999999996								
	2	6	0.0497	0.192	0.052	175.0	208.0	220.00000000000003	0	0	1	-29.999999999999996	29.999999999999996								
	3	9	0.0308	0.119	0.0322	175.0	208.0	220.00000000000003	0	0	1	-29.999999999999996	29.999999999999996								
	3	24	0.0023	0.0839	0.0	400.0	509.99999999999994	600.0	1.03	0.0	1	-29.999999999999996	29.999999999999996								
	4	9	0.0268	0.1037	0.0281	175.0	208.0	220.00000000000003	0	0	1	-29.999999999999996	29.999999999999996								
	5	10	0.0228	0.0883	0.0239	175.0	208.0	220.00000000000003	0	0	1	-29.999999999999996	29.999999999999996								
	6	10	0.0139	0.0605	2.459	175.0	193.0	200.0	0	0	1	-29.999999999999996	29.999999999999996								
	7	8	0.0159	0.0614	0.0166	175.0	208.0	220.00000000000003	0	0	1	-29.999999999999996	29.999999999999996								
	8	9	0.0427	0.1651	0.0447	175.0	208.0	220.00000000000003	0	0	1	-29.999999999999996	29.999999999999996								
	8	10	0.0427	0.1651	0.0447	175.0	208.0	220.00000000000003	0	0	1	-29.999999999999996	29.999999999999996								
	9	11	0.0023	0.0839	0.0	400.0	509.99999999999994	600.0	1.03	0.0	1	-29.999999999999996	29.999999999999996								
	9	12	0.0023	0.0839	0.0	400.0	509.99999999999994	600.0	1.03	0.0	1	-29.999999999999996	29.999999999999996								
	10	11	0.0023	0.0839	0.0	400.0	509.99999999999994	600.0	1.02	0.0	1	-29.999999999999996	29.999999999999996								
	10	12	0.0023	0.0839	0.0	400.0	509.99999999999994	600.0	1.02	0.0	1	-29.999999999999996	29.999999999999996								
	11	13	0.0061	0.0476	0.0999	500.0	600.0	625.0	0	0	1	-29.999999999999996	29.999999999999996								
	11	14	0.0054	0.0418	0.0879	500.0	600.0	625.0	0	0	1	-29.999999999999996	29.999999999999996								
	12	13	0.0061	0.0476	0.0999	500.0	600.0	625.0	0	0	1	-29.999999999999996	29.999999999999996								
	12	23	0.0124	0.0966	0.203	500.0	600.0	625.0	0	0	1	-29.999999999999996	29.999999999999996								
	13	23	0.0111	0.0865	0.1818	500.0	600.0	625.0	0	0	1	-29.999999999999996	29.999999999999996								
	14	16	0.005	0.0389	0.0818	500.0	600.0	625.0	0	0	1	-29.999999999999996	29.999999999999996								
	15	16	0.0022	0.0173	0.0364	500.0	600.0	625.0	0	0	1	-29.999999999999996	29.999999999999996								
	15	21	0.0063	0.049	0.103	500.0	600.0	625.0	0	0	1	-29.999999999999996	29.999999999999996								
	15	21	0.0063	0.049	0.103	500.0	600.0	625.0	0	0	1	-29.999999999999996	29.999999999999996								
	15	24	0.0067	0.0519	0.1091	500.0	600.0	625.0	0	0	1	-29.999999999999996	29.999999999999996								
	16	17	0.0033	0.0259	0.0545	500.0	600.0	625.0	0	0	1	-29.999999999999996	29.999999999999996								
	16	19	0.003	0.0231	0.0485	500.0	600.0	625.0	0	0	1	-29.999999999999996	29.999999999999996								
	17	18	0.0018	0.0144	0.0303	500.0	600.0	625.0	0	0	1	-29.999999999999996	29.999999999999996								
	17	22	0.0135	0.1053	0.2212	500.0	600.0	625.0	0	0	1	-29.999999999999996	29.999999999999996								
	18	21	0.0033	0.0259	0.0545	500.0	600.0	625.0	0	0	1	-29.999999999999996	29.999999999999996								
	18	21	0.0033	0.0259	0.0545	500.0	600.0	625.0	0	0	1	-29.999999999999996	29.999999999999996								
	19	20	0.0051	0.0396	0.0833	500.0	600.0	625.0	0	0	1	-29.999999999999996	29.999999999999996								
	19	20	0.0051	0.0396	0.0833	500.0	600.0	625.0	0	0	1	-29.999999999999996	29.999999999999996								
	20	23	0.0028	0.0216	0.0455	500.0	600.0	625.0	0	0	1	-29.999999999999996	29.999999999999996								
	20	23	0.0028	0.0216	0.0455	500.0	600.0	625.0	0	0	1	-29.999999999999996	29.999999999999996								
	21	22	0.0087	0.0678	0.1424	500.0	600.0	625.0	0	0	1	-29.999999999999996	29.999999999999996								
];

%%-----  OPF Data  -----%%
%% cost data
%    1    startup    shutdown    n    x1    y1    ...    xn    yn
%    2    startup    shutdown    n    c(n-1)    ...    c0
mpc.gencost = [
	2	1500.0	0.0	3	0.0	130.0	400.6849
	2	1500.0	0.0	3	0.0	130.0	400.6849
	2	1500.0	0.0	3	0.014142	16.0811	212.3076
	2	1500.0	0.0	3	0.014142	16.0811	212.3076
	2	1500.0	0.0	3	0.0	130.0	400.6849
	2	1500.0	0.0	3	0.0	130.0	400.6849
	2	1500.0	0.0	3	0.014142	16.0811	212.3076
	2	1500.0	0.0	3	0.014142	16.0811	212.3076
	2	1500.0	0.0	3	0.052672	43.6615	781.521
	2	1500.0	0.0	3	0.052672	43.6615	781.521
	2	1500.0	0.0	3	0.052672	43.6615	781.521
	2	1500.0	0.0	3	0.007170000000000001	48.5804	832.7575
	2	1500.0	0.0	3	0.007170000000000001	48.5804	832.7575
	2	1500.0	0.0	3	0.007170000000000001	48.5804	832.7575
	2	1500.0	0.0	3	0.0	0.0	0.0
	2	1500.0	0.0	3	0.328412	56.564	86.3852
	2	1500.0	0.0	3	0.328412	56.564	86.3852
	2	1500.0	0.0	3	0.328412	56.564	86.3852
	2	1500.0	0.0	3	0.328412	56.564	86.3852
	2	1500.0	0.0	3	0.328412	56.564	86.3852
	2	1500.0	0.0	3	0.008342	12.3883	382.2391
	2	1500.0	0.0	3	0.008342	12.3883	382.2391
	2	1500.0	0.0	3	0.000213	4.4231	395.3749
	2	1500.0	0.0	3	0.000213	4.4231	395.3749
	2	1500.0	0.0	3	0.0	0.001	0.001
	2	1500.0	0.0	3	0.0	0.001	0.001
	2	1500.0	0.0	3	0.0	0.001	0.001
	2	1500.0	0.0	3	0.0	0.001	0.001
	2	1500.0	0.0	3	0.0	0.001	0.001
	2	1500.0	0.0	3	0.0	0.001	0.001
	2	1500.0	0.0	3	0.008342	12.3883	382.2391
	2	1500.0	0.0	3	0.008342	12.3883	382.2391
	2	1500.0	0.0	3	0.004895000000000001	11.8495	665.1094
];

